Version 4.1
SHEET 1 880 680
WIRE 32 64 -80 64
WIRE 160 64 112 64
WIRE 240 64 160 64
WIRE 384 64 320 64
WIRE 528 64 384 64
WIRE 160 96 160 64
WIRE 384 96 384 64
WIRE 528 96 528 64
WIRE -80 112 -80 64
WIRE -80 256 -80 192
WIRE 160 256 160 176
WIRE 160 256 -80 256
WIRE 384 256 384 176
WIRE 384 256 160 256
WIRE 528 256 528 176
WIRE 528 256 384 256
WIRE 160 288 160 256
FLAG 160 64 Va
FLAG 160 288 0
SYMBOL voltage -80 96 R0
WINDOW 123 0 0 Left 0
WINDOW 39 0 0 Left 0
SYMATTR InstName V1
SYMATTR Value 5
SYMBOL res 128 48 R90
WINDOW 0 0 56 VBottom 2
WINDOW 3 32 56 VTop 2
SYMATTR InstName R1
SYMATTR Value 47
SYMBOL res 144 80 R0
SYMATTR InstName R2
SYMATTR Value 180
SYMBOL res 336 48 R90
WINDOW 0 0 56 VBottom 2
WINDOW 3 32 56 VTop 2
SYMATTR InstName R4
SYMATTR Value 100
SYMBOL res 368 80 R0
SYMATTR InstName R3
SYMATTR Value 100
SYMBOL voltage 528 80 R0
SYMATTR InstName V2
SYMATTR Value 2.75
TEXT -112 272 Left 2 !.op
